PDE  2023 10 11 10 36 57.60  23.300 121.250 18.0 5.3 5.3 202310111036
event name:       202310111036
time shift:       0.0000
half duration:    0.0
latitude:        23.300
longitude:      121.250
depth:           18.00
Mrr:  3.2305e+23
Mtt:  -4.6319e+23
Mpp:  1.3750e+23
Mrt:  -2.7830e+22
Mrp:  -5.3798e+23
Mtp:  -6.6425e+23
