PDE  2010  9 11 22 41  8.00  99999 99999 -99999 4.3 4.3 201009112241
event name:       201009112241
time shift:       0.0000
half duration:    0.0
latitude:        24.420
longitude:      121.690
depth:           60.00
Mrr:  -3.7700e+21
Mtt:  6.8000e+20
Mpp:  3.0900e+21
Mrt:  3.7000e+21
Mrp:  2.7820e+22
Mtp:  2.4600e+21

